2qbr_ligand
  -I-interpret- 

 44 46  0  0  0  0  0  0  0  0999 V2000
   44.9240   14.3230    0.6640 S   0  0  0  0  0
   45.0960   15.6460    1.7300 C   0  0  0  0  0
   45.9700   15.2890    2.7910 C   0  0  0  0  0
   46.4440   13.9560    2.6530 C   0  0  0  0  0
   45.9450   13.2820    1.5090 C   0  0  0  0  0
   44.4140   16.8590    1.4850 C   0  0  0  0  0
   44.4470   17.7800    2.2990 O   0  0  0  0  0
   43.7890   16.9570    0.4240 O   0  0  0  0  0
   46.2010   11.8870    1.0260 C   0  0  0  0  0
   47.5180   11.3150    1.0600 C   0  0  0  0  0
   47.7370    9.9830    0.6010 C   0  0  0  0  0
   46.6290    9.2030    0.0970 C   0  0  0  0  0
   45.3100    9.7660    0.0560 C   0  0  0  0  0
   45.1080   11.1050    0.5240 C   0  0  0  0  0
   47.6320   13.1870    3.9130 Br  0  0  0  0  0
   46.3660   16.1140    3.9000 O   0  0  0  0  0
   47.5820   16.8460    3.7100 C   0  0  0  0  0
   47.9420   17.5920    4.9940 C   0  0  0  0  0
   47.1630   17.5430    5.9630 O   0  0  0  0  0
   49.0030   18.2220    5.0270 O   0  0  0  0  0
   49.0320    9.5000    0.6690 N   0  0  0  0  0
   49.4040    8.0820    0.8060 C   0  0  0  0  0
   49.4490    7.6120    2.2450 C   0  0  0  0  0
   48.2330    7.1950    2.8950 C   0  0  0  0  0
   48.2680    6.7450    4.2530 C   0  0  0  0  0
   49.5260    6.7190    4.9440 C   0  0  0  0  0
   50.7460    7.1350    4.3000 C   0  0  0  0  0
   50.7060    7.5850    2.9370 C   0  0  0  0  0
   43.8801   16.1426   -0.0761 H   0  0  0  0  0
   48.3545   11.9023    1.4387 H   0  0  0  0  0
   46.7962    8.1843   -0.2528 H   0  0  0  0  0
   44.4724    9.1826   -0.3263 H   0  0  0  0  0
   44.1074   11.5366    0.4982 H   0  0  0  0  0
   47.4481   17.5642    2.9010 H   0  0  0  0  0
   48.3847   16.1529    3.4584 H   0  0  0  0  0
   46.4017   17.0052    5.7333 H   0  0  0  0  0
   49.7897   10.1811    0.6203 H   0  0  0  0  0
   50.4035    7.9614    0.3882 H   0  0  0  0  0
   48.6475    7.4912    0.2895 H   0  0  0  0  0
   47.2876    7.2222    2.3532 H   0  0  0  0  0
   47.3540    6.4271    4.7547 H   0  0  0  0  0
   49.5590    6.3771    5.9785 H   0  0  0  0  0
   51.6909    7.1083    4.8427 H   0  0  0  0  0
   51.6194    7.9023    2.4339 H   0  0  0  0  0
  1  2  4  0  0  0
  1  5  4  0  0  0
  2  3  4  0  0  0
  2  6  1  0  0  0
  3  4  4  0  0  0
  3 16  1  0  0  0
  4  5  4  0  0  0
  4 15  1  0  0  0
  5  9  1  0  0  0
  6  7  2  0  0  0
  6  8  1  0  0  0
  9 10  4  0  0  0
  9 14  4  0  0  0
 10 11  4  0  0  0
 11 12  4  0  0  0
 11 21  1  0  0  0
 12 13  4  0  0  0
 13 14  4  0  0  0
 16 17  1  0  0  0
 17 18  1  0  0  0
 18 19  1  0  0  0
 18 20  2  0  0  0
 21 22  1  0  0  0
 22 23  1  0  0  0
 23 24  4  0  0  0
 23 28  4  0  0  0
 24 25  4  0  0  0
 25 26  4  0  0  0
 26 27  4  0  0  0
 27 28  4  0  0  0
  8 29  1  0  0  0
 10 30  1  0  0  0
 12 31  1  0  0  0
 13 32  1  0  0  0
 14 33  1  0  0  0
 17 34  1  0  0  0
 17 35  1  0  0  0
 19 36  1  0  0  0
 21 37  1  0  0  0
 22 38  1  0  0  0
 22 39  1  0  0  0
 24 40  1  0  0  0
 25 41  1  0  0  0
 26 42  1  0  0  0
 27 43  1  0  0  0
 28 44  1  0  0  0
M  END
$$$$
