Vonoprazan
     RDKit          3D

 24 26  0  0  1  0  0  0  0  0999 V2000
   -4.6604    1.3313   -0.6915 O   0  0  0  0  0  0  0  0  0  0  0  0
   -3.4941    2.0054   -0.1093 S   0  0  0  0  0  0  0  0  0  0  0  0
   -2.1524    0.9325   -0.2936 N   0  0  0  0  0  0  0  0  0  0  0  0
   -0.8441    1.3575   -0.2988 C   0  0  0  0  0  0  0  0  0  0  0  0
    0.0264    0.2830   -0.2123 C   0  0  0  0  0  0  0  0  0  0  0  0
    1.5373    0.3107   -0.2237 C   0  0  0  0  0  0  0  0  0  0  0  0
    2.0210    0.4168    1.2303 N   0  0  0  0  0  0  0  0  0  0  0  0
    3.5495    0.4488    1.3659 C   0  0  0  0  0  0  0  0  0  0  0  0
   -0.8111   -0.8338   -0.1252 C   0  0  0  0  0  0  0  0  0  0  0  0
   -2.1447   -0.4410   -0.1253 C   0  0  0  0  0  0  0  0  0  0  0  0
   -3.3496   -1.3083    0.0109 C   0  0  0  0  0  0  0  0  0  0  0  0
   -4.2337   -1.1179    1.0797 C   0  0  0  0  0  0  0  0  0  0  0  0
   -5.3538   -1.9361    1.2244 C   0  0  0  0  0  0  0  0  0  0  0  0
   -5.5941   -2.9576    0.3063 C   0  0  0  0  0  0  0  0  0  0  0  0
   -4.7116   -3.1625   -0.7539 C   0  0  0  0  0  0  0  0  0  0  0  0
   -3.5900   -2.3449   -0.9014 C   0  0  0  0  0  0  0  0  0  0  0  0
   -2.7452   -2.5616   -1.9371 F   0  0  0  0  0  0  0  0  0  0  0  0
   -3.1168    3.4120   -1.1482 C   0  0  0  0  0  0  0  0  0  0  0  0
   -3.2810    3.3309   -2.5345 C   0  0  0  0  0  0  0  0  0  0  0  0
   -2.9677    4.4362   -3.3281 C   0  0  0  0  0  0  0  0  0  0  0  0
   -2.4963    5.5928   -2.7035 C   0  0  0  0  0  0  0  0  0  0  0  0
   -2.3284    5.6902   -1.3593 N   0  0  0  0  0  0  0  0  0  0  0  0
   -2.6397    4.6075   -0.6014 C   0  0  0  0  0  0  0  0  0  0  0  0
   -3.4708    2.4335    1.2941 O   0  0  0  0  0  0  0  0  0  0  0  0
  1  2  2  0
  2  3  1  0
  2 18  1  0
  2 24  2  0
  3 10  1  0
  3  4  1  0
  4  5  2  0
  5  6  1  0
  5  9  1  0
  6  7  1  0
  7  8  1  0
  9 10  2  0
 10 11  1  0
 11 16  1  0
 11 12  2  0
 12 13  1  0
 13 14  2  0
 14 15  1  0
 15 16  2  0
 16 17  1  0
 18 23  1  0
 18 19  2  0
 19 20  1  0
 20 21  2  0
 21 22  1  0
 22 23  2  0
M  CHG  1   7   1
M  END
$$$$
Faropenem daloxate
     RDKit          3D

 27 30  0  0  1  0  0  0  0  0999 V2000
    0.3693    3.1651   -1.5637 O   0  0  0  0  0  0  0  0  0  0  0  0
   -0.5334    2.4614   -1.1138 C   0  0  0  0  0  0  0  0  0  0  0  0
   -0.5579    1.2922   -0.3427 N   0  0  0  0  0  0  0  0  0  0  0  0
   -2.0212    1.1979   -0.3229 C   0  0  2  0  0  0  0  0  0  0  0  0
   -2.3453   -0.4549   -0.9498 S   0  0  0  0  0  0  0  0  0  0  0  0
   -0.6120   -0.9017   -0.8015 C   0  0  0  0  0  0  0  0  0  0  0  0
   -0.1913   -2.3401   -1.1062 C   0  0  2  0  0  0  0  0  0  0  0  0
   -1.0913   -2.9946   -2.0079 O   0  0  0  0  0  0  0  0  0  0  0  0
   -1.4516   -4.2904   -1.5258 C   0  0  0  0  0  0  0  0  0  0  0  0
   -0.3937   -4.6061   -0.4748 C   0  0  0  0  0  0  0  0  0  0  0  0
   -0.1550   -3.2437    0.1292 C   0  0  0  0  0  0  0  0  0  0  0  0
    0.1818    0.1555   -0.4668 C   0  0  0  0  0  0  0  0  0  0  0  0
    1.6385    0.2227   -0.2056 C   0  0  0  0  0  0  0  0  0  0  0  0
    2.2248   -0.9889   -0.1834 O   0  0  0  0  0  0  0  0  0  0  0  0
    3.6162   -1.1542    0.0388 C   0  0  0  0  0  0  0  0  0  0  0  0
    3.9429   -2.6312    0.0731 C   0  0  0  0  0  0  0  0  0  0  0  0
    4.4711   -3.4571    0.9713 C   0  0  0  0  0  0  0  0  0  0  0  0
    4.4906   -4.6939    0.4608 O   0  0  0  0  0  0  0  0  0  0  0  0
    3.9521   -4.6183   -0.7769 C   0  0  0  0  0  0  0  0  0  0  0  0
    3.6212   -3.3321   -1.0212 O   0  0  0  0  0  0  0  0  0  0  0  0
    3.7899   -5.5608   -1.5496 O   0  0  0  0  0  0  0  0  0  0  0  0
    5.0048   -3.3083    2.3790 C   0  0  0  0  0  0  0  0  0  0  0  0
    2.2454    1.2766    0.0064 O   0  0  0  0  0  0  0  0  0  0  0  0
   -2.0816    2.4311   -1.2585 C   0  0  1  0  0  0  0  0  0  0  0  0
   -2.7592    3.7014   -0.6883 C   0  0  2  0  0  0  0  0  0  0  0  0
   -4.1533    3.4730   -0.6344 O   0  0  0  0  0  0  0  0  0  0  0  0
   -2.5207    4.9699   -1.5284 C   0  0  0  0  0  0  0  0  0  0  0  0
  1  2  2  0
  2  3  1  0
 24  2  1  1
  3 12  1  0
  3  4  1  0
  4 24  1  0
  4  5  1  6
  5  6  1  0
  7  6  1  1
  6 12  2  0
  7 11  1  0
  7  8  1  0
  8  9  1  0
  9 10  1  0
 10 11  1  0
 12 13  1  0
 13 14  1  0
 13 23  2  0
 14 15  1  0
 15 16  1  0
 16 20  1  0
 16 17  2  0
 17 18  1  0
 17 22  1  0
 18 19  1  0
 19 20  1  0
 19 21  2  0
 24 25  1  0
 25 26  1  0
 25 27  1  6
M  END
$$$$
Varenicline
     RDKit          3D

 16 19  0  0  1  0  0  0  0  0999 V2000
   -1.2571    5.8257    0.1343 C   0  0  0  0  0  0  0  0  0  0  0  0
   -2.4596    5.1181    0.0673 C   0  0  0  0  0  0  0  0  0  0  0  0
   -2.4702    3.7351   -0.0975 C   0  0  0  0  0  0  0  0  0  0  0  0
   -1.2414    3.0374   -0.1962 C   0  0  0  0  0  0  0  0  0  0  0  0
   -1.2448    1.6823   -0.3526 N   0  0  0  0  0  0  0  0  0  0  0  0
   -0.0418    1.0606   -0.4400 C   0  0  0  0  0  0  0  0  0  0  0  0
    1.1575    1.7662   -0.3731 C   0  0  0  0  0  0  0  0  0  0  0  0
    1.1882    3.1138   -0.2168 N   0  0  0  0  0  0  0  0  0  0  0  0
   -0.0082    3.7629   -0.1274 C   0  0  0  0  0  0  0  0  0  0  0  0
   -0.0321    5.1696    0.0385 C   0  0  0  0  0  0  0  0  0  0  0  0
   -3.6044    6.1115    0.2107 C   0  0  2  0  0  0  0  0  0  0  0  0
   -2.9409    7.3578   -0.3831 C   0  0  0  0  0  0  0  0  0  0  0  0
   -1.5831    7.3007    0.3234 C   0  0  1  0  0  0  0  0  0  0  0  0
   -1.7576    7.7171    1.8142 C   0  0  0  0  0  0  0  0  0  0  0  0
   -2.7700    6.7904    2.5373 N   0  0  0  0  0  0  0  0  0  0  0  0
   -4.0066    6.3939    1.6888 C   0  0  0  0  0  0  0  0  0  0  0  0
  1 13  1  0
  1 10  2  0
  1  2  1  0
  2  3  2  0
  2 11  1  0
  3  4  1  0
  4  9  2  0
  4  5  1  0
  5  6  2  0
  6  7  1  0
  7  8  2  0
  8  9  1  0
  9 10  1  0
 11 16  1  1
 11 12  1  0
 12 13  1  0
 13 14  1  1
 14 15  1  0
 15 16  1  0
M  CHG  1  15   1
M  END
$$$$
Treprostinil
     RDKit          3D

 28 30  0  0  1  0  0  0  0  0999 V2000
   -9.1193    5.3925    1.6356 O   0  0  0  0  0  0  0  0  0  0  0  0
   -9.0044    6.5328    1.1275 C   0  0  0  0  0  0  0  0  0  0  0  0
   -7.7696    6.8735    0.2629 C   0  0  0  0  0  0  0  0  0  0  0  0
   -6.9065    5.7343    0.1661 O   0  0  0  0  0  0  0  0  0  0  0  0
   -5.7349    5.8163   -0.5654 C   0  0  0  0  0  0  0  0  0  0  0  0
   -5.3268    6.9774   -1.2426 C   0  0  0  0  0  0  0  0  0  0  0  0
   -4.1352    6.9971   -1.9594 C   0  0  0  0  0  0  0  0  0  0  0  0
   -3.3374    5.8597   -2.0090 C   0  0  0  0  0  0  0  0  0  0  0  0
   -3.7212    4.6907   -1.3489 C   0  0  0  0  0  0  0  0  0  0  0  0
   -4.9270    4.6665   -0.6214 C   0  0  0  0  0  0  0  0  0  0  0  0
   -5.2810    3.3620    0.0970 C   0  0  0  0  0  0  0  0  0  0  0  0
   -4.0508    2.8367    0.8808 C   0  0  1  0  0  0  0  0  0  0  0  0
   -4.2182    1.4196    1.4511 C   0  0  0  0  0  0  0  0  0  0  0  0
   -2.8631    0.7284    1.2873 C   0  0  1  0  0  0  0  0  0  0  0  0
   -2.9178   -0.6833    1.3105 O   0  0  0  0  0  0  0  0  0  0  0  0
   -2.1754    1.3864    0.0780 C   0  0  2  0  0  0  0  0  0  0  0  0
   -0.6254    1.3667    0.0996 C   0  0  0  0  0  0  0  0  0  0  0  0
    0.0048   -0.0364   -0.0352 C   0  0  0  0  0  0  0  0  0  0  0  0
    1.5514   -0.0454   -0.0583 C   0  0  1  0  0  0  0  0  0  0  0  0
    1.9788   -1.3939   -0.0044 O   0  0  0  0  0  0  0  0  0  0  0  0
    2.1692    0.6455   -1.2984 C   0  0  0  0  0  0  0  0  0  0  0  0
    3.7117    0.6486   -1.3254 C   0  0  0  0  0  0  0  0  0  0  0  0
    4.2859    1.3893   -2.5467 C   0  0  0  0  0  0  0  0  0  0  0  0
    5.8242    1.3997   -2.5747 C   0  0  0  0  0  0  0  0  0  0  0  0
    6.3938    2.1332   -3.7965 C   0  0  0  0  0  0  0  0  0  0  0  0
   -2.7327    2.8314    0.0505 C   0  0  1  0  0  0  0  0  0  0  0  0
   -2.8678    3.4270   -1.3766 C   0  0  0  0  0  0  0  0  0  0  0  0
   -9.8428    7.4508    1.2720 O   0  0  0  0  0  0  0  0  0  0  0  0
  1  2  1  0
  2  3  1  0
  2 28  2  0
  3  4  1  0
  4  5  1  0
  5 10  2  0
  5  6  1  0
  6  7  2  0
  7  8  1  0
  8  9  2  0
  9 27  1  0
  9 10  1  0
 10 11  1  0
 12 11  1  6
 12 13  1  0
 12 26  1  0
 13 14  1  0
 14 15  1  6
 14 16  1  0
 16 26  1  0
 16 17  1  1
 17 18  1  0
 18 19  1  0
 19 20  1  6
 19 21  1  0
 21 22  1  0
 22 23  1  0
 23 24  1  0
 24 25  1  0
 26 27  1  6
M  CHG  1   1  -1
M  END
$$$$
Plerixafor
     RDKit          3D

 36 38  0  0  1  0  0  0  0  0999 V2000
    0.2489   -0.0210   -0.0398 C   0  0  0  0  0  0  0  0  0  0  0  0
    1.7690   -0.1072   -0.1389 C   0  0  0  0  0  0  0  0  0  0  0  0
    2.3098    0.6554   -1.2758 N   0  0  0  0  0  0  0  0  0  0  0  0
    2.0016   -0.0194   -2.5546 C   0  0  0  0  0  0  0  0  0  0  0  0
    1.7502    0.9239   -3.7581 C   0  0  0  0  0  0  0  0  0  0  0  0
    0.4600    1.7712   -3.7233 C   0  0  0  0  0  0  0  0  0  0  0  0
    0.4517    2.6722   -2.5798 N   0  0  0  0  0  0  0  0  0  0  0  0
   -0.5303    3.7481   -2.6860 C   0  0  0  0  0  0  0  0  0  0  0  0
   -0.1655    4.8604   -3.7081 C   0  0  0  0  0  0  0  0  0  0  0  0
    1.3426    5.1923   -3.7445 N   0  0  0  0  0  0  0  0  0  0  0  0
    1.9393    5.7024   -2.4202 C   0  0  0  0  0  0  0  0  0  0  0  0
    3.4800    5.6996   -2.4888 C   0  0  0  0  0  0  0  0  0  0  0  0
    4.1461    4.3391   -2.7937 C   0  0  0  0  0  0  0  0  0  0  0  0
    3.6987    3.2686   -1.7835 N   0  0  0  0  0  0  0  0  0  0  0  0
    4.4447    1.9269   -1.9162 C   0  0  0  0  0  0  0  0  0  0  0  0
    3.7618    0.8274   -1.0714 C   0  0  0  0  0  0  0  0  0  0  0  0
   -0.5357   -1.1423   -0.3166 C   0  0  0  0  0  0  0  0  0  0  0  0
   -1.9230   -1.0569   -0.2414 C   0  0  0  0  0  0  0  0  0  0  0  0
   -2.5350    0.1545    0.0928 C   0  0  0  0  0  0  0  0  0  0  0  0
   -1.7475    1.2760    0.3686 C   0  0  0  0  0  0  0  0  0  0  0  0
   -0.3601    1.1897    0.2991 C   0  0  0  0  0  0  0  0  0  0  0  0
   -4.0572    0.2312    0.2409 C   0  0  0  0  0  0  0  0  0  0  0  0
   -4.5734   -0.0128    1.6024 N   0  0  0  0  0  0  0  0  0  0  0  0
   -4.3237   -1.3795    2.0981 C   0  0  0  0  0  0  0  0  0  0  0  0
   -5.0111   -2.5177    1.3006 C   0  0  0  0  0  0  0  0  0  0  0  0
   -6.5052   -2.2206    1.0820 N   0  0  0  0  0  0  0  0  0  0  0  0
   -7.3248   -3.3886    0.5130 C   0  0  0  0  0  0  0  0  0  0  0  0
   -8.8049   -2.9795    0.3480 C   0  0  0  0  0  0  0  0  0  0  0  0
   -9.6256   -2.8300    1.6552 C   0  0  0  0  0  0  0  0  0  0  0  0
   -9.1601   -1.7888    2.5681 N   0  0  0  0  0  0  0  0  0  0  0  0
   -9.4112   -0.4350    2.0741 C   0  0  0  0  0  0  0  0  0  0  0  0
   -8.7534    0.6439    2.9629 C   0  0  0  0  0  0  0  0  0  0  0  0
   -7.2409    0.3895    3.0968 N   0  0  0  0  0  0  0  0  0  0  0  0
   -6.4351    1.5240    3.7422 C   0  0  0  0  0  0  0  0  0  0  0  0
   -4.9527    1.1165    3.8704 C   0  0  0  0  0  0  0  0  0  0  0  0
   -4.1433    1.0295    2.5500 C   0  0  0  0  0  0  0  0  0  0  0  0
  1 21  1  0
  1  2  1  0
  1 17  2  0
  2  3  1  0
  3 16  1  0
  3  4  1  0
  4  5  1  0
  5  6  1  0
  6  7  1  0
  7  8  1  0
  8  9  1  0
  9 10  1  0
 10 11  1  0
 11 12  1  0
 12 13  1  0
 13 14  1  0
 14 15  1  0
 15 16  1  0
 17 18  1  0
 18 19  2  0
 19 20  1  0
 19 22  1  0
 20 21  2  0
 22 23  1  0
 23 36  1  0
 23 24  1  0
 24 25  1  0
 25 26  1  0
 26 27  1  0
 27 28  1  0
 28 29  1  0
 29 30  1  0
 30 31  1  0
 31 32  1  0
 32 33  1  0
 33 34  1  0
 34 35  1  0
 35 36  1  0
M  CHG  4  10   1  14   1  26   1  33   1
M  END
$$$$
Isepamicin (sulfate)
     RDKit          3D

 39 41  0  0  1  0  0  0  0  0999 V2000
   -0.4631   -0.4182    2.7143 O   0  0  0  0  0  0  0  0  0  0  0  0
   -0.7841   -0.9889    1.4588 C   0  0  2  0  0  0  0  0  0  0  0  0
    0.0838   -0.3363    0.3439 C   0  0  2  0  0  0  0  0  0  0  0  0
   -0.2760   -0.7970   -1.0991 C   0  0  1  0  0  0  0  0  0  0  0  0
   -1.8014   -0.7620   -1.3564 C   0  0  0  0  0  0  0  0  0  0  0  0
   -2.6072   -1.4610   -0.2374 C   0  0  2  0  0  0  0  0  0  0  0  0
   -4.1060   -1.3356   -0.5615 N   0  0  0  0  0  0  0  0  0  0  0  0
   -2.3048   -0.8827    1.1722 C   0  0  1  0  0  0  0  0  0  0  0  0
   -3.0030   -1.6015    2.1978 O   0  0  0  0  0  0  0  0  0  0  0  0
   -4.1395   -1.0222    2.7907 C   0  0  2  0  0  0  0  0  0  0  0  0
   -3.7577   -0.1298    3.9895 C   0  0  1  0  0  0  0  0  0  0  0  0
   -3.1089   -0.9864    5.0996 C   0  0  1  0  0  0  0  0  0  0  0  0
   -2.7779   -0.2108    6.2400 O   0  0  0  0  0  0  0  0  0  0  0  0
   -4.0330   -2.1698    5.4627 C   0  0  2  0  0  0  0  0  0  0  0  0
   -3.4097   -3.0435    6.3889 O   0  0  0  0  0  0  0  0  0  0  0  0
   -2.9959    1.0070    3.6243 O   0  0  0  0  0  0  0  0  0  0  0  0
   -5.0350   -2.0231    3.2075 O   0  0  0  0  0  0  0  0  0  0  0  0
   -4.4986   -2.9303    4.1923 C   0  0  2  0  0  0  0  0  0  0  0  0
   -5.5501   -4.0167    4.5272 C   0  0  0  0  0  0  0  0  0  0  0  0
   -5.9789   -4.7869    3.2710 N   0  0  0  0  0  0  0  0  0  0  0  0
    0.5062   -0.1124   -2.1339 N   0  0  0  0  0  0  0  0  0  0  0  0
    0.7753   -0.5916   -3.3627 C   0  0  0  0  0  0  0  0  0  0  0  0
    1.6445    0.3103   -4.2717 C   0  0  1  0  0  0  0  0  0  0  0  0
    2.5482   -0.5004   -5.0089 O   0  0  0  0  0  0  0  0  0  0  0  0
    0.8400    1.2321   -5.2358 C   0  0  0  0  0  0  0  0  0  0  0  0
   -0.0638    0.4661   -6.2218 N   0  0  0  0  0  0  0  0  0  0  0  0
    0.3664   -1.6851   -3.7597 O   0  0  0  0  0  0  0  0  0  0  0  0
    1.4861   -0.4062    0.6452 O   0  0  0  0  0  0  0  0  0  0  0  0
    2.1426   -1.6472    0.5600 C   0  0  1  0  0  0  0  0  0  0  0  0
    2.6307   -1.8774   -0.7413 O   0  0  0  0  0  0  0  0  0  0  0  0
    3.6805   -0.9982   -1.1692 C   0  0  0  0  0  0  0  0  0  0  0  0
    4.9071   -0.9752   -0.2296 C   0  0  2  0  0  0  0  0  0  0  0  0
    5.9379    0.0657   -0.7249 C   0  0  0  0  0  0  0  0  0  0  0  0
    5.5430   -2.2431   -0.3219 O   0  0  0  0  0  0  0  0  0  0  0  0
    4.3952   -0.6796    1.2087 C   0  0  2  0  0  0  0  0  0  0  0  0
    5.5763   -0.8068    2.2041 N   0  0  0  0  0  0  0  0  0  0  0  0
    5.5470    0.1759    3.3844 C   0  0  0  0  0  0  0  0  0  0  0  0
    3.2729   -1.6731    1.6062 C   0  0  1  0  0  0  0  0  0  0  0  0
    2.7377   -1.4693    2.9021 O   0  0  0  0  0  0  0  0  0  0  0  0
  2  1  1  1
  2  8  1  0
  2  3  1  0
  3  4  1  0
  3 28  1  1
  4  5  1  0
  4 21  1  6
  5  6  1  0
  6  7  1  6
  6  8  1  0
  8  9  1  1
 10  9  1  1
 10 11  1  0
 10 17  1  0
 11 12  1  0
 11 16  1  6
 12 13  1  1
 12 14  1  0
 14 18  1  0
 14 15  1  1
 17 18  1  0
 18 19  1  1
 19 20  1  0
 21 22  1  0
 22 23  1  0
 22 27  2  0
 23 24  1  6
 23 25  1  0
 25 26  1  0
 29 28  1  6
 29 30  1  0
 29 38  1  0
 30 31  1  0
 31 32  1  0
 32 33  1  6
 32 34  1  0
 32 35  1  0
 35 38  1  0
 35 36  1  1
 36 37  1  0
 38 39  1  1
M  CHG  4   7   1  20   1  26   1  36   1
M  END
$$$$
Ticagrelor
     RDKit          3D

 36 40  0  0  1  0  0  0  0  0999 V2000
   -1.8083   -3.3441   -1.8412 O   0  0  0  0  0  0  0  0  0  0  0  0
   -1.1769   -2.3192   -1.0948 C   0  0  1  0  0  0  0  0  0  0  0  0
   -0.9608   -0.9918   -1.8471 C   0  0  1  0  0  0  0  0  0  0  0  0
   -2.0719   -0.6064   -2.6387 O   0  0  0  0  0  0  0  0  0  0  0  0
   -0.6918    0.0113   -0.7120 C   0  0  2  0  0  0  0  0  0  0  0  0
    0.7347    0.0741   -0.3459 N   0  0  0  0  0  0  0  0  0  0  0  0
    1.2874   -0.8022    0.5263 N   0  0  0  0  0  0  0  0  0  0  0  0
    2.6408   -0.5540    0.6234 N   0  0  0  0  0  0  0  0  0  0  0  0
    2.9233    0.4635   -0.2390 C   0  0  0  0  0  0  0  0  0  0  0  0
    4.1044    1.1365   -0.5955 C   0  0  0  0  0  0  0  0  0  0  0  0
    5.3298    0.7933    0.0020 N   0  0  0  0  0  0  0  0  0  0  0  0
    6.5748    1.3773   -0.4835 C   0  0  1  0  0  0  0  0  0  0  0  0
    6.8364    2.8243   -0.1084 C   0  0  2  0  0  0  0  0  0  0  0  0
    7.4249    3.8453   -1.0767 C   0  0  0  0  0  0  0  0  0  0  0  0
    7.1162    5.2004   -0.9140 C   0  0  0  0  0  0  0  0  0  0  0  0
    7.6125    6.1511   -1.8063 C   0  0  0  0  0  0  0  0  0  0  0  0
    8.4250    5.7547   -2.8679 C   0  0  0  0  0  0  0  0  0  0  0  0
    8.9007    6.6784   -3.7336 F   0  0  0  0  0  0  0  0  0  0  0  0
    8.7433    4.4063   -3.0351 C   0  0  0  0  0  0  0  0  0  0  0  0
    9.5298    4.0169   -4.0640 F   0  0  0  0  0  0  0  0  0  0  0  0
    8.2471    3.4559   -2.1421 C   0  0  0  0  0  0  0  0  0  0  0  0
    7.6903    1.7101    0.4730 C   0  0  0  0  0  0  0  0  0  0  0  0
    4.0494    2.1282   -1.5295 N   0  0  0  0  0  0  0  0  0  0  0  0
    2.8437    2.4267   -2.0851 C   0  0  0  0  0  0  0  0  0  0  0  0
    2.8109    3.7070   -3.3048 S   0  0  0  0  0  0  0  0  0  0  0  0
    4.5257    4.2671   -3.5505 C   0  0  0  0  0  0  0  0  0  0  0  0
    4.7189    5.4386   -4.5261 C   0  0  0  0  0  0  0  0  0  0  0  0
    4.1045    6.7584   -4.0366 C   0  0  0  0  0  0  0  0  0  0  0  0
    1.6469    1.8401   -1.8039 N   0  0  0  0  0  0  0  0  0  0  0  0
    1.7324    0.8742   -0.8799 C   0  0  0  0  0  0  0  0  0  0  0  0
   -1.6187   -0.4386    0.4391 C   0  0  0  0  0  0  0  0  0  0  0  0
   -1.9016   -1.9445    0.2186 C   0  0  2  0  0  0  0  0  0  0  0  0
   -1.3525   -2.7317    1.2727 O   0  0  0  0  0  0  0  0  0  0  0  0
   -2.1261   -2.7633    2.4677 C   0  0  0  0  0  0  0  0  0  0  0  0
   -1.3890   -3.5906    3.5306 C   0  0  0  0  0  0  0  0  0  0  0  0
   -1.3325   -4.9500    3.1509 O   0  0  0  0  0  0  0  0  0  0  0  0
  2  1  1  6
  2 32  1  0
  2  3  1  0
  3  4  1  1
  3  5  1  0
  5  6  1  1
  5 31  1  0
  6 30  1  0
  6  7  1  0
  7  8  2  0
  8  9  1  0
  9 30  2  0
  9 10  1  0
 10 11  1  0
 10 23  2  0
 12 11  1  1
 12 22  1  0
 12 13  1  0
 13 14  1  6
 13 22  1  0
 14 21  1  0
 14 15  2  0
 15 16  1  0
 16 17  2  0
 17 18  1  0
 17 19  1  0
 19 20  1  0
 19 21  2  0
 23 24  1  0
 24 25  1  0
 24 29  2  0
 25 26  1  0
 26 27  1  0
 27 28  1  0
 29 30  1  0
 31 32  1  0
 32 33  1  1
 33 34  1  0
 34 35  1  0
 35 36  1  0
M  END
$$$$
Axitinib
     RDKit          3D

 28 31  0  0  1  0  0  0  0  0999 V2000
    0.9961    2.9894    0.6331 O   0  0  0  0  0  0  0  0  0  0  0  0
   -0.0645    2.6960    0.0787 C   0  0  0  0  0  0  0  0  0  0  0  0
   -0.6200    1.2872    0.1371 C   0  0  0  0  0  0  0  0  0  0  0  0
    0.1955    0.1324    0.0361 C   0  0  0  0  0  0  0  0  0  0  0  0
    1.9522    0.1970   -0.2336 S   0  0  0  0  0  0  0  0  0  0  0  0
    2.0266    0.1261   -1.9949 C   0  0  0  0  0  0  0  0  0  0  0  0
    1.9162    1.3079   -2.7294 C   0  0  0  0  0  0  0  0  0  0  0  0
    1.9834    1.1943   -4.1214 C   0  0  0  0  0  0  0  0  0  0  0  0
    2.1637   -0.0469   -4.7874 C   0  0  0  0  0  0  0  0  0  0  0  0
    2.1871    0.2831   -6.1927 C   0  0  0  0  0  0  0  0  0  0  0  0
    2.3656   -0.5752   -7.3563 C   0  0  0  0  0  0  0  0  0  0  0  0
    2.7178   -1.8764   -7.3935 C   0  0  0  0  0  0  0  0  0  0  0  0
    2.8750   -2.7083   -8.6054 C   0  0  0  0  0  0  0  0  0  0  0  0
    3.2394   -4.0545   -8.4750 C   0  0  0  0  0  0  0  0  0  0  0  0
    3.3838   -4.8331   -9.6252 C   0  0  0  0  0  0  0  0  0  0  0  0
    3.1632   -4.2579  -10.8771 C   0  0  0  0  0  0  0  0  0  0  0  0
    2.8025   -2.9116  -10.9342 C   0  0  0  0  0  0  0  0  0  0  0  0
    2.6576   -2.1410   -9.8260 N   0  0  0  0  0  0  0  0  0  0  0  0
    2.0173    1.5770   -6.3366 N   0  0  0  0  0  0  0  0  0  0  0  0
    1.9021    2.1336   -5.1219 N   0  0  0  0  0  0  0  0  0  0  0  0
    2.2664   -1.2137   -4.0063 C   0  0  0  0  0  0  0  0  0  0  0  0
    2.1973   -1.1087   -2.6179 C   0  0  0  0  0  0  0  0  0  0  0  0
   -0.3804   -1.1390    0.1193 C   0  0  0  0  0  0  0  0  0  0  0  0
   -1.7526   -1.2885    0.2978 C   0  0  0  0  0  0  0  0  0  0  0  0
   -2.5647   -0.1638    0.3941 C   0  0  0  0  0  0  0  0  0  0  0  0
   -2.0038    1.1090    0.3142 C   0  0  0  0  0  0  0  0  0  0  0  0
   -0.7993    3.5788   -0.6233 N   0  0  0  0  0  0  0  0  0  0  0  0
   -0.4479    4.9780   -0.8372 C   0  0  0  0  0  0  0  0  0  0  0  0
  1  2  2  0
  2  3  1  0
  2 27  1  0
  3 26  2  0
  3  4  1  0
  4  5  1  0
  4 23  2  0
  5  6  1  0
  6 22  1  0
  6  7  2  0
  7  8  1  0
  8 20  1  0
  8  9  2  0
  9 10  1  0
  9 21  1  0
 10 11  1  0
 10 19  2  0
 11 12  2  0
 12 13  1  0
 13 18  1  0
 13 14  2  0
 14 15  1  0
 15 16  2  0
 16 17  1  0
 17 18  2  0
 19 20  1  0
 21 22  2  0
 23 24  1  0
 24 25  2  0
 25 26  1  0
 27 28  1  0
M  END
$$$$
Ritlecitinib
     RDKit          3D

 21 23  0  0  1  0  0  0  0  0999 V2000
   -4.9709    0.7441   -2.3514 C   0  0  0  0  0  0  0  0  0  0  0  0
   -4.1142   -0.2289   -1.9888 C   0  0  0  0  0  0  0  0  0  0  0  0
   -2.6766   -0.0350   -1.9716 C   0  0  0  0  0  0  0  0  0  0  0  0
   -1.9375   -0.8155   -1.1263 N   0  0  0  0  0  0  0  0  0  0  0  0
   -2.4927   -1.5841    0.0236 C   0  0  1  0  0  0  0  0  0  0  0  0
   -2.2563   -3.1034   -0.0505 C   0  0  0  0  0  0  0  0  0  0  0  0
   -1.9844   -0.9255    1.3381 C   0  0  0  0  0  0  0  0  0  0  0  0
   -0.4681   -0.6516    1.3731 C   0  0  0  0  0  0  0  0  0  0  0  0
   -0.0211    0.0696    0.0904 C   0  0  1  0  0  0  0  0  0  0  0  0
    1.4360    0.1878    0.0807 N   0  0  0  0  0  0  0  0  0  0  0  0
    2.1044    1.2232   -0.5965 C   0  0  0  0  0  0  0  0  0  0  0  0
    3.5106    1.1982   -0.6746 C   0  0  0  0  0  0  0  0  0  0  0  0
    4.1122    2.2813   -1.3782 C   0  0  0  0  0  0  0  0  0  0  0  0
    5.4758    2.0842   -1.3499 N   0  0  0  0  0  0  0  0  0  0  0  0
    5.7561    0.9272   -0.6614 C   0  0  0  0  0  0  0  0  0  0  0  0
    4.5775    0.3481   -0.2267 C   0  0  0  0  0  0  0  0  0  0  0  0
    3.4572    3.2950   -1.9550 N   0  0  0  0  0  0  0  0  0  0  0  0
    2.1085    3.2073   -1.8107 C   0  0  0  0  0  0  0  0  0  0  0  0
    1.4019    2.2407   -1.1710 N   0  0  0  0  0  0  0  0  0  0  0  0
   -0.4614   -0.7166   -1.1606 C   0  0  0  0  0  0  0  0  0  0  0  0
   -2.1543    0.7802   -2.7387 O   0  0  0  0  0  0  0  0  0  0  0  0
  1  2  2  0
  2  3  1  0
  3  4  1  0
  3 21  2  0
  4 20  1  0
  4  5  1  0
  5  6  1  6
  5  7  1  0
  7  8  1  0
  8  9  1  0
  9 10  1  1
  9 20  1  0
 10 11  1  0
 11 19  2  0
 11 12  1  0
 12 16  1  0
 12 13  2  0
 13 14  1  0
 13 17  1  0
 14 15  1  0
 15 16  2  0
 17 18  2  0
 18 19  1  0
M  END
$$$$
Vorapaxar
     RDKit          3D

 36 40  0  0  1  0  0  0  0  0999 V2000
   -3.2108   -2.4090    3.2827 O   0  0  0  0  0  0  0  0  0  0  0  0
   -2.2178   -2.1412    2.6099 C   0  0  0  0  0  0  0  0  0  0  0  0
   -1.0246   -2.7380    2.8176 O   0  0  0  0  0  0  0  0  0  0  0  0
   -0.0104   -2.2385    1.9444 C   0  0  2  0  0  0  0  0  0  0  0  0
    1.2846   -2.1759    2.7777 C   0  0  0  0  0  0  0  0  0  0  0  0
   -2.0940   -1.1446    1.4638 C   0  0  1  0  0  0  0  0  0  0  0  0
   -0.5872   -0.8800    1.4986 C   0  0  2  0  0  0  0  0  0  0  0  0
   -0.0582   -0.1980    0.1902 C   0  0  1  0  0  0  0  0  0  0  0  0
    1.4643   -0.2063    0.1490 C   0  0  0  0  0  0  0  0  0  0  0  0
    2.2426    0.8806    0.3184 C   0  0  0  0  0  0  0  0  0  0  0  0
    3.7193    0.9142    0.3025 C   0  0  0  0  0  0  0  0  0  0  0  0
    4.4006   -0.2529    0.1418 N   0  0  0  0  0  0  0  0  0  0  0  0
    5.7572   -0.2164    0.1451 C   0  0  0  0  0  0  0  0  0  0  0  0
    6.5046    0.9598    0.3031 C   0  0  0  0  0  0  0  0  0  0  0  0
    5.7787    2.1499    0.4614 C   0  0  0  0  0  0  0  0  0  0  0  0
    4.3831    2.1335    0.4625 C   0  0  0  0  0  0  0  0  0  0  0  0
    7.9981    0.9461    0.3033 C   0  0  0  0  0  0  0  0  0  0  0  0
    8.7312    2.0248   -0.2157 C   0  0  0  0  0  0  0  0  0  0  0  0
   10.1263    2.0130   -0.2170 C   0  0  0  0  0  0  0  0  0  0  0  0
   10.8144    0.9199    0.3048 C   0  0  0  0  0  0  0  0  0  0  0  0
   10.1058   -0.1596    0.8273 C   0  0  0  0  0  0  0  0  0  0  0  0
   10.7702   -1.2202    1.3392 F   0  0  0  0  0  0  0  0  0  0  0  0
    8.7106   -0.1453    0.8246 C   0  0  0  0  0  0  0  0  0  0  0  0
   -0.6570   -0.7499   -1.1451 C   0  0  1  0  0  0  0  0  0  0  0  0
   -2.2054   -0.8467   -1.0508 C   0  0  1  0  0  0  0  0  0  0  0  0
   -2.7770   -1.4262   -2.3697 C   0  0  0  0  0  0  0  0  0  0  0  0
   -2.5564   -1.7662    0.1301 C   0  0  0  0  0  0  0  0  0  0  0  0
   -0.3081    0.1739   -2.3420 C   0  0  0  0  0  0  0  0  0  0  0  0
   -0.8748   -0.3339   -3.6810 C   0  0  0  0  0  0  0  0  0  0  0  0
   -2.4013   -0.6049   -3.6239 C   0  0  1  0  0  0  0  0  0  0  0  0
   -2.9767   -1.1470   -4.8565 N   0  0  0  0  0  0  0  0  0  0  0  0
   -3.1214   -0.4059   -6.0208 C   0  0  0  0  0  0  0  0  0  0  0  0
   -3.6544   -1.1935   -6.9754 O   0  0  0  0  0  0  0  0  0  0  0  0
   -3.9217   -0.6826   -8.2754 C   0  0  0  0  0  0  0  0  0  0  0  0
   -4.5134   -1.7939   -9.1476 C   0  0  0  0  0  0  0  0  0  0  0  0
   -2.8200    0.7808   -6.1714 O   0  0  0  0  0  0  0  0  0  0  0  0
  1  2  2  0
  2  3  1  0
  2  6  1  0
  3  4  1  0
  7  4  1  6
  4  5  1  1
  6 27  1  6
  6  7  1  0
  7  8  1  0
  8  9  1  6
  8 24  1  0
  9 10  2  0
 10 11  1  0
 11 16  1  0
 11 12  2  0
 12 13  1  0
 13 14  2  0
 14 15  1  0
 14 17  1  0
 15 16  2  0
 17 23  1  0
 17 18  2  0
 18 19  1  0
 19 20  2  0
 20 21  1  0
 21 22  1  0
 21 23  2  0
 24 25  1  0
 24 28  1  6
 25 26  1  6
 25 27  1  0
 26 30  1  0
 28 29  1  0
 29 30  1  0
 30 31  1  6
 31 32  1  0
 32 33  1  0
 32 36  2  0
 33 34  1  0
 34 35  1  0
M  END
$$$$
Asenapine
     RDKit          3D

 20 23  0  0  1  0  0  0  0  0999 V2000
   -2.4840   -3.6232    5.5425 Cl  0  0  0  0  0  0  0  0  0  0  0  0
   -2.9689   -3.3333    3.9116 C   0  0  0  0  0  0  0  0  0  0  0  0
   -4.2565   -3.6566    3.4986 C   0  0  0  0  0  0  0  0  0  0  0  0
   -4.6383   -3.4176    2.1821 C   0  0  0  0  0  0  0  0  0  0  0  0
   -3.7445   -2.8637    1.2608 C   0  0  0  0  0  0  0  0  0  0  0  0
   -4.2434   -2.5927    0.0073 O   0  0  0  0  0  0  0  0  0  0  0  0
   -3.6242   -3.1252   -1.0973 C   0  0  0  0  0  0  0  0  0  0  0  0
   -4.2249   -4.1723   -1.8000 C   0  0  0  0  0  0  0  0  0  0  0  0
   -3.6569   -4.6456   -2.9810 C   0  0  0  0  0  0  0  0  0  0  0  0
   -2.4910   -4.0621   -3.4711 C   0  0  0  0  0  0  0  0  0  0  0  0
   -1.8851   -3.0201   -2.7704 C   0  0  0  0  0  0  0  0  0  0  0  0
   -2.4320   -2.5526   -1.5669 C   0  0  0  0  0  0  0  0  0  0  0  0
   -1.8059   -1.4699   -0.6923 C   0  0  2  0  0  0  0  0  0  0  0  0
   -0.5413   -0.7739   -1.2066 C   0  0  0  0  0  0  0  0  0  0  0  0
   -1.3852   -1.9606    0.6982 C   0  0  1  0  0  0  0  0  0  0  0  0
   -0.4561   -0.8638    1.2535 C   0  0  0  0  0  0  0  0  0  0  0  0
    0.0310   -0.0569    0.0301 N   0  0  1  0  0  0  0  0  0  0  0  0
    1.5600    0.1070   -0.0304 C   0  0  0  0  0  0  0  0  0  0  0  0
   -2.4302   -2.5306    1.6705 C   0  0  0  0  0  0  0  0  0  0  0  0
   -2.0703   -2.7771    3.0041 C   0  0  0  0  0  0  0  0  0  0  0  0
  1  2  1  0
  2 20  2  0
  2  3  1  0
  3  4  2  0
  4  5  1  0
  5 19  2  0
  5  6  1  0
  6  7  1  0
  7 12  2  0
  7  8  1  0
  8  9  2  0
  9 10  1  0
 10 11  2  0
 11 12  1  0
 12 13  1  0
 13 14  1  6
 13 15  1  0
 14 17  1  0
 15 16  1  1
 15 19  1  0
 16 17  1  0
 17 18  1  6
 19 20  1  0
M  CHG  1  17   1
M  END
$$$$
