2qbr_ligand
 OpenBabel08132412203D

 42 44  0  0  0  0  0  0  0  0999 V2000
   44.9240   14.3230    0.6640 S   0  0  0  0  0  0  0  0  0  0  0  0
   45.0960   15.6460    1.7300 C   0  0  0  0  0  0  0  0  0  0  0  0
   45.9700   15.2890    2.7910 C   0  0  0  0  0  0  0  0  0  0  0  0
   46.4440   13.9560    2.6530 C   0  0  0  0  0  0  0  0  0  0  0  0
   45.9450   13.2820    1.5090 C   0  0  0  0  0  0  0  0  0  0  0  0
   44.4140   16.8590    1.4850 C   0  0  0  0  0  0  0  0  0  0  0  0
   44.4470   17.7800    2.2990 O   0  0  0  0  0  0  0  0  0  0  0  0
   43.7890   16.9570    0.4240 O   0  5  0  0  0  0  0  0  0  0  0  0
   46.2010   11.8870    1.0260 C   0  0  0  0  0  0  0  0  0  0  0  0
   47.5180   11.3150    1.0600 C   0  0  0  0  0  0  0  0  0  0  0  0
   47.7370    9.9830    0.6010 C   0  0  0  0  0  0  0  0  0  0  0  0
   46.6290    9.2030    0.0970 C   0  0  0  0  0  0  0  0  0  0  0  0
   45.3100    9.7660    0.0560 C   0  0  0  0  0  0  0  0  0  0  0  0
   45.1080   11.1050    0.5240 C   0  0  0  0  0  0  0  0  0  0  0  0
   47.6320   13.1870    3.9130 Br  0  0  0  0  0  0  0  0  0  0  0  0
   46.3660   16.1140    3.9000 O   0  0  0  0  0  0  0  0  0  0  0  0
   47.5820   16.8460    3.7100 C   0  0  0  0  0  0  0  0  0  0  0  0
   47.9420   17.5920    4.9940 C   0  0  0  0  0  0  0  0  0  0  0  0
   47.1630   17.5430    5.9630 O   0  5  0  0  0  0  0  0  0  0  0  0
   49.0030   18.2220    5.0270 O   0  0  0  0  0  0  0  0  0  0  0  0
   49.0320    9.5000    0.6690 N   0  0  0  0  0  0  0  0  0  0  0  0
   49.4040    8.0820    0.8060 C   0  0  0  0  0  0  0  0  0  0  0  0
   49.4490    7.6120    2.2450 C   0  0  0  0  0  0  0  0  0  0  0  0
   48.2330    7.1950    2.8950 C   0  0  0  0  0  0  0  0  0  0  0  0
   48.2680    6.7450    4.2530 C   0  0  0  0  0  0  0  0  0  0  0  0
   49.5260    6.7190    4.9440 C   0  0  0  0  0  0  0  0  0  0  0  0
   50.7460    7.1350    4.3000 C   0  0  0  0  0  0  0  0  0  0  0  0
   50.7060    7.5850    2.9370 C   0  0  0  0  0  0  0  0  0  0  0  0
   48.3100   11.8711    1.4186 H   0  0  0  0  0  0  0  0  0  0  0  0
   46.7873    8.2385   -0.2342 H   0  0  0  0  0  0  0  0  0  0  0  0
   44.5170    9.2136   -0.3059 H   0  0  0  0  0  0  0  0  0  0  0  0
   44.1607   11.5137    0.4996 H   0  0  0  0  0  0  0  0  0  0  0  0
   47.4525   17.5498    2.9145 H   0  0  0  0  0  0  0  0  0  0  0  0
   48.3699   16.1651    3.4638 H   0  0  0  0  0  0  0  0  0  0  0  0
   49.7634   10.1574    0.6220 H   0  0  0  0  0  0  0  0  0  0  0  0
   50.3719    7.9411    0.3721 H   0  0  0  0  0  0  0  0  0  0  0  0
   48.6518    7.5069    0.3076 H   0  0  0  0  0  0  0  0  0  0  0  0
   47.3379    7.2207    2.3821 H   0  0  0  0  0  0  0  0  0  0  0  0
   47.4027    6.4440    4.7280 H   0  0  0  0  0  0  0  0  0  0  0  0
   49.5573    6.3953    5.9234 H   0  0  0  0  0  0  0  0  0  0  0  0
   51.6406    7.1098    4.8138 H   0  0  0  0  0  0  0  0  0  0  0  0
   51.5708    7.8854    2.4607 H   0  0  0  0  0  0  0  0  0  0  0  0
  1  2  1  0  0  0  0
  1  5  1  0  0  0  0
  2  3  2  0  0  0  0
  2  6  1  0  0  0  0
  3  4  1  0  0  0  0
  3 16  1  0  0  0  0
  4  5  2  0  0  0  0
  4 15  1  0  0  0  0
  5  9  1  0  0  0  0
  6  7  2  0  0  0  0
  6  8  1  0  0  0  0
  9 10  2  0  0  0  0
  9 14  1  0  0  0  0
 10 11  1  0  0  0  0
 10 29  1  0  0  0  0
 11 12  2  0  0  0  0
 11 21  1  0  0  0  0
 12 13  1  0  0  0  0
 12 30  1  0  0  0  0
 13 14  2  0  0  0  0
 13 31  1  0  0  0  0
 14 32  1  0  0  0  0
 16 17  1  0  0  0  0
 17 18  1  0  0  0  0
 17 33  1  0  0  0  0
 17 34  1  0  0  0  0
 18 19  1  0  0  0  0
 18 20  2  0  0  0  0
 21 22  1  0  0  0  0
 21 35  1  0  0  0  0
 22 23  1  0  0  0  0
 22 36  1  0  0  0  0
 22 37  1  0  0  0  0
 23 24  2  0  0  0  0
 23 28  1  0  0  0  0
 24 25  1  0  0  0  0
 24 38  1  0  0  0  0
 25 26  2  0  0  0  0
 25 39  1  0  0  0  0
 26 27  1  0  0  0  0
 26 40  1  0  0  0  0
 27 28  2  0  0  0  0
 27 41  1  0  0  0  0
 28 42  1  0  0  0  0
M  CHG  2   8  -1  19  -1
M  END
$$$$
